
     RDKit          3D

 14 13  0  0  0  0  0  0  0  0999 V2000
    1.9210   -0.0921    0.0932 C   0  0  0  0  0  0  0  0  0  0  0  0
    0.5335    0.4632    0.2162 C   0  0  0  0  0  0  0  0  0  0  0  0
   -0.5284   -0.5215   -0.2091 C   0  0  0  0  0  0  0  0  0  0  0  0
   -1.8812    0.1183   -0.0531 C   0  0  0  0  0  0  0  0  0  0  0  0
    2.6381    0.6554    0.4342 H   0  0  0  0  0  0  0  0  0  0  0  0
    2.1917   -0.4196   -0.9089 H   0  0  0  0  0  0  0  0  0  0  0  0
    1.9965   -0.9684    0.7808 H   0  0  0  0  0  0  0  0  0  0  0  0
    0.3604    0.7353    1.2754 H   0  0  0  0  0  0  0  0  0  0  0  0
    0.4231    1.3990   -0.3857 H   0  0  0  0  0  0  0  0  0  0  0  0
   -0.3994   -0.7624   -1.2930 H   0  0  0  0  0  0  0  0  0  0  0  0
   -0.4486   -1.4084    0.4415 H   0  0  0  0  0  0  0  0  0  0  0  0
   -2.5044   -0.4270    0.7159 H   0  0  0  0  0  0  0  0  0  0  0  0
   -2.4868    0.0449   -0.9924 H   0  0  0  0  0  0  0  0  0  0  0  0
   -1.8155    1.1833    0.2278 H   0  0  0  0  0  0  0  0  0  0  0  0
  1  2  1  0
  2  3  1  0
  3  4  1  0
  1  5  1  0
  1  6  1  0
  1  7  1  0
  2  8  1  0
  2  9  1  0
  3 10  1  0
  3 11  1  0
  4 12  1  0
  4 13  1  0
  4 14  1  0
M  END

