57
Coordinates from ORCA-job /home/chenl/Documents/work_cs/S/SI3_1.0
  C   -0.98159959765538     -2.11665783254646      2.50718203367044
  C   -1.20403889930476     -1.44321885975810      1.14137173529863
  C   -2.48607721167346     -1.43992071678557      0.55470327966450
  H   -3.29033648456406     -1.98458131846043      1.05544371093997
  C   -2.77021039518902     -0.77967256857215     -0.66416301043717
  C   -4.14077894274598     -0.73126428997152     -1.27901057652898
  C   -1.69355074256110     -0.14244916831707     -1.31127059228149
  H   -1.85591195211383      0.37163308430394     -2.25813666158681
  C   -0.41794420975303     -0.14138475177565     -0.75143037555719
  H   0.39766737147737      0.36557507531587     -1.26953586856142
  C   -0.17131253779780     -0.77822503482643      0.46637026216951
  H   0.83631536143893     -0.75984521364715      0.88208820578454
  C   -1.68884683438580     -1.30105421229208      3.60664059271157
  C   0.51039133431796     -2.33563661591518      2.86527912854224
  H   -1.45606735260122     -3.11251632136248      2.46123796840090
  S   0.65609667975420     -3.35665173491483      4.42055517819204
  H   1.02132543784585     -1.37850436966796      3.03871523671851
  H   1.03298940899961     -2.88580520837070      2.07245160484866
  H   -1.61879861672117     -1.80142759142214      4.58326001706557
  H   -2.75109680636829     -1.16085215220693      3.36805493100276
  H   -1.22875739704136     -0.30577039345106      3.69684677985474
  C   -4.23470784936818     -0.48574972324471     -2.76225235091161
  C   -5.24766857301664     -0.88551823400123     -0.53130242515166
  H   -5.20093405363583     -1.02022423838768      0.54939536668041
  H   -6.24041234025779     -0.86248762748617     -0.98229183103916
  S   2.58537309601377     -4.15628964581788      4.37326233342834
  S   3.97319908334744     -3.16666585849583      5.57877387769838
  C   4.24266200839851     -4.20137273294825      7.11193573292745
  C   5.75543922210932     -4.14413819821886      7.48500978286715
  H   3.92807035507987     -5.22913226871272      6.88546455554831
  H   3.59991350028060     -3.80221246435849      7.90364227436716
  C   6.55486611139119     -5.05820222260672      6.55357355022803
  C   6.05421887202809     -4.36310987247403      8.98403431876959
  H   6.08206409663524     -3.10466441995219      7.28690291221600
  C   7.15091272663827     -5.11961629396325      9.43827565185374
  C   7.50976267749654     -5.20784051647037     10.80809864779328
  C   6.68218416295378     -4.54722432280112     11.73209537287718
  C   5.58521462100795     -3.79868366292473     11.30365174505693
  C   5.28066608626255     -3.69426230435576      9.94879650172313
  H   7.75428185492660     -5.66543682909503      8.71340617935440
  C   8.72297828977321     -5.94939218298557     11.29390971888959
  H   6.90708523560153     -4.59434407994910     12.79712591242511
  H   4.96703817750858     -3.27925965204706     12.03761692287037
  H   4.43620322990696     -3.07545065059357      9.64165082342029
  H   6.28057971542755     -4.85699189925342      5.50940647023947
  H   6.34358212890771     -6.11676621705773      6.76708620360671
  H   7.63628612245039     -4.89586035251619      6.65221869287959
  C   8.73901175649971     -6.40116808877869     12.73094376492276
  C   9.76823926523800     -6.19050292467873     10.48277393612666
  H   9.79574780165620     -5.83588407025343      9.45246420936238
  H   10.64146021328163     -6.73885587101118     10.83814019811954
  H   -3.60655252378128     -1.19167131328465     -3.32623884014362
  H   -3.89352193592881      0.52794176018246     -3.02470791423374
  H   -5.27210550348399     -0.58622164940752     -3.10454580600787
  H   7.83575511287663     -6.97836063368464     12.98001046463401
  H   8.77361564333970     -5.54479172475440     13.42254493593334
  H   9.62008395907692     -7.02387879896703     12.92967458075607
