
     RDKit          3D

 14 13  0  0  0  0  0  0  0  0999 V2000
    1.8814    0.0020    0.3223 C   0  0  0  0  0  0  0  0  0  0  0  0
    0.4387   -0.3362    0.7225 C   0  0  0  0  0  0  0  0  0  0  0  0
   -0.4448    0.2573   -0.3320 C   0  0  0  0  0  0  0  0  0  0  0  0
   -1.9043    0.0263   -0.1074 C   0  0  0  0  0  0  0  0  0  0  0  0
    2.0300   -0.2096   -0.7556 H   0  0  0  0  0  0  0  0  0  0  0  0
    2.0197    1.0851    0.5091 H   0  0  0  0  0  0  0  0  0  0  0  0
    2.6087   -0.5276    0.9603 H   0  0  0  0  0  0  0  0  0  0  0  0
    0.4042   -1.4622    0.6978 H   0  0  0  0  0  0  0  0  0  0  0  0
    0.2748    0.0719    1.7264 H   0  0  0  0  0  0  0  0  0  0  0  0
   -0.1091   -0.1781   -1.3141 H   0  0  0  0  0  0  0  0  0  0  0  0
   -0.2291    1.3488   -0.3756 H   0  0  0  0  0  0  0  0  0  0  0  0
   -2.4793    0.9977   -0.0506 H   0  0  0  0  0  0  0  0  0  0  0  0
   -2.3433   -0.5333   -0.9832 H   0  0  0  0  0  0  0  0  0  0  0  0
   -2.1476   -0.5418    0.7983 H   0  0  0  0  0  0  0  0  0  0  0  0
  1  2  1  0
  2  3  1  0
  3  4  1  0
  1  5  1  0
  1  6  1  0
  1  7  1  0
  2  8  1  0
  2  9  1  0
  3 10  1  0
  3 11  1  0
  4 12  1  0
  4 13  1  0
  4 14  1  0
M  END

